                              ZONEBUDGET Version 6
                             U.S. GEOLOGICAL SURVEY
                            VERSION 6.4.4 02/13/2024

 OPENED zonebud.zbnam
 FILE TYPE:NAM   UNIT   22   STATUS:OLD                 
 FORMAT:FORMATTED              ACCESS:SEQUENTIAL          
 ACTION:READ                


 OPENED zonebud.zon
 FILE TYPE:ZON   UNIT   24   STATUS:OLD                 
 FORMAT:FORMATTED              ACCESS:SEQUENTIAL          
 ACTION:READ                


 OPENED ..\Modflow_SS_master\Gondebeek_SS.cbc
 FILE TYPE:BUD   UNIT   23   STATUS:OLD                 
 FORMAT:UNFORMATTED            ACCESS:STREAM              
 ACTION:READ                


 OPENED ..\Modflow_SS_master\Gondebeek_SS.dis.grb
 FILE TYPE:GRB   UNIT   25   STATUS:OLD                 
 FORMAT:UNFORMATTED            ACCESS:STREAM              
 ACTION:READ                


 OPENED zonebud.csv
 FILE TYPE:CSV   UNIT   21   STATUS:REPLACE             
 FORMAT:FORMATTED              ACCESS:SEQUENTIAL          
 ACTION:READWRITE           

Reading budget file to determine number of terms per time step.
    1.00000              STO-SS                 
    1.00000        FLOW-JA-FACE                 
    1.00000                 DRN DRN             
    1.00000                 RIV RIV             
    1.00000                RCHA RCHA_0          
Detected 5 unique flow terms in budget file.

Processing Binary Grid File
  Detected regular MODFLOW grid (DIS)
  Detected VERSION 1
  Detected NTXT 16
  Detected LENTXT 100
  Detected NCELLS = 30624
  Detected NLAY = 4
  Detected NROW = 116
  Detected NCOL = 66
  Detected NJA = 111312
  Detected XORIGIN = 105100.0000000000
  Detected YORIGIN = 177000.0000000000
  Detected ANGROT = .000000000000000
  Detected double array DELR
  Detected double array DELC
  Detected double array TOP
  Detected double array BOTM
  Detected integer array IA
  Detected integer array JA
  Detected integer array IDOMAIN
  Detected integer array ICELLTYPE
Done processing Binary Grid File

Processing zone dimensions
    NCELLS = 30624
End processing zone dimensions

Processing zone griddata

                    IZONE
                1           1           1           1           1           1           1           1           1           1
                1           1           1           1           1           1           1           1           1           1
                1           1           1           1           1           1           1           1           1           1
                1           1           1           1           1           1           1           1           1           1
                1           1           1           1           1           1           1           1           1           1
                1           1           1           1           1           1           1           1           1           1
                1           1           1           1           1           1           1           1           1           1
                1           1           1           1           1           1           1           1           1           1
                1           1           1           1           1           1           1           1           1           1
                1           1           1           1           1           1           1           1           1           1
                1           1           1           1           1           1           1           1           1           1
                1           1           1           1           1           1           1           1           1           1
                1           1           1           1           1           1           1           1           1           1
                1           1           1           1           1           1           1           1           1           1
                1           1           1           1           1           1           1           1           1           1
                1           1           1           1           1           1           1           1           1           1
                1           1           1           1           1           1           1           1           1           1
                1           1           1           1           1           1           1           1           1           1
                1           1           1           1           1           1           1           1           1           1
                1           1           1           1           1           1           1           1           1           1
                1           1           1           1           1           1           1           1           1           1
                1           1           1           1           1           1           1           1           1           1
                1           1           1           1           1           1           1           1           1           1
                1           1           1           1           1           1           1           1           1           1
                1           1           1           1           1           1           1           1           1           1
                1           1           1           1           1           1           1           1           1           1
                1           1           1           1           1           1           1           1           1           1
                1           1           1           1           1           1           1           1           1           1
                1           1           1           1           1           1           1           1           1           1
                1           1           1           1           1           1           1           1           1           1
                1           1           1           1           1           1           1           1           1           1
                1           1           1           1           1           1           1           1           1           1
                1           1           1           1           1           1           1           1           1           1
                1           1           1           1           1           1           1           1           1           1
                1           1           1           1           1           1           1           1           1           1
                1           1           1           1           1           1           1           1           1           1
                1           1           1           1           1           1           1           1           1           1
                1           1           1           1           1           1           1           1           1           1
                1           1           1           1           1           1           1           1           1           1
                1           1           1           1           1           1           1           1           1           1
                1           1           1           1           1           1           1           1           1           1
                1           1           1           1           1           1           1           1           1           1
                1           1           1           1           1           1           1           1           1           1
                1           1           1           1           1           1           1           1           1           1
                1           1           1           1           1           1           1           1           1           1
                1           1           1           1           1           1           1           1           1           1
                1           1           1           1           1           1           1           1           1           1
                1           1           1           1           1           1           1           1           1           1
                1           1           1           1           1           1           1           1           1           1
                1           1           1           1           1           1           1           1           1           1
                1           1           1           1           1           1           1           1           1           1
                1           1           1           1           1           1           1           1           1           1
                1           1           1           1           1           1           1           1           1           1
                1           1           1           1           1           1           1           1           1           1
                1           1           1           1           1           1           1           1           1           1
                1           1           1           1           1           1           1           1           1           1
                1           1           1           1           1           1           1           1           1           1
                1           1           1           1           1           1           1           1           1           1
                1           1           1           1           1           1           1           1           1           1
                1           1           1           1           1           1           1           1           1           1
                1           1           1           1           1           1           1           1           1           1
                1           1           1           1           1           1           1           1           1           1
                1           1           1           1           1           1           1           1           1           1
                1           1           1           1           1           1           1           1           1           1
                1           1           1           1           1           1           1           1           1           1
                1           1           1           1           1           1           1           1           1           1
                1           1           1           1           1           1           1           1           1           1
                1           1           1           1           1           1           1           1           1           1
                1           1           1           1           1           1           1           1           1           1
                1           1           1           1           1           1           1           1           1           1
                1           1           1           1           1           1           1           1           1           1
                1           1           1           1           1           1           1           1           1           1
                1           1           1           1           1           1           1           1           1           1
                1           1           1           1           1           1           1           1           1           1
                1           1           1           1           1           1           1           1           1           1
                1           1           1           1           1           1           1           1           1           1
                1           1           1           1           1           1           1           1           1           1
                1           1           1           1           1           1           1           1           1           1
                1           1           1           1           1           1           1           1           1           1
                1           1           1           1           1           1           1           1           1           1
                1           1           1           1           1           1           1           1           1           1
                1           1           1           1           1           1           1           1           1           1
                1           1           1           1           1           1           1           1           1           1
                1           1           1           1           1           1           1           1           1           1
                1           1           1           1           1           1           1           1           1           1
                1           1           1           1           1           1           1           1           1           1
                1           1           1           1           1           1           1           1           1           1
                1           1           1           1           1           1           1           1           1           1
                1           1           1           1           1           1           1           1           1           1
                1           1           1           1           1           1           1           1           1           1
                1           1           1           1           1           1           1           1           1           1
                1           1           1           1           1           1           1           1           1           1
                1           1           1           1           1           1           1           1           1           1
                1           1           1           1           1           1           1           1           1           1
                1           1           1           1           1           1           1           1           1           1
                1           1           1           1           1           1           1           1           1           1
                1           1           1           1           1           1           1           1           1           1
                1           1           1           1           1           1           1           1           1           1
                1           1           1           1           1           1           1           1           1           1
                1           1           1           1           1           1           1           1           1           1
                1           1           1           1           1           1           1           1           1           1
                1           1           1           1           1           1           1           1           1           1
                1           1           1           1           1           1           1           1           1           1
                1           1           1           1           1           1           1           1           1           1
                1           1           1           1           1           1           1           1           1           1
                1           1           1           1           1           1           1           1           1           1
                1           1           1           1           1           1           1           1           1           1
                1           1           1           1           1           1           1           1           1           1
                1           1           1           1           1           1           1           1           1           1
                1           1           1           1           1           1           1           1           1           1
                1           1           1           1           1           1           1           1           1           1
                1           1           1           1           1           1           1           1           1           1
                1           1           1           1           1           1           1           1           1           1
                1           1           1           1           1           1           1           1           1           1
                1           1           1           1           1           1           1           1           1           1
                1           1           1           1           1           1           1           1           1           1
                1           1           1           1           1           1           1           1           1           1
                1           1           1           1           1           1           1           1           1           1
                1           1           1           1           1           1           1           1           1           1
                1           1           1           1           1           1           1           1           1           1
                1           1           1           1           1           1           1           1           1           1
                1           1           1           1           1           1           1           1           1           1
                1           1           1           1           1           1           1           1           1           1
                1           1           1           1           1           1           1           1           1           1
                1           1           1           1           1           1           1           1           1           1
                1           1           1           1           1           1           1           1           1           1
                1           1           1           1           1           1           1           1           1           1
                1           1           1           1           1           1           1           1           1           1
                1           1           1           1           1           1           1           1           1           1
                1           1           1           1           1           1           1           1           1           1
                1           1           1           1           1           1           1           1           1           1
                1           1           1           1           1           1           1           1           1           1
                1           1           1           1           1           1           1           1           1           1
                1           1           1           1           1           1           1           1           1           1
                1           1           1           1           1           1           1           1           1           1
                1           1           1           1           1           1           1           1           1           1
                1           1           1           1           1           1           1           1           1           1
                1           1           1           1           1           1           1           1           1           1
                1           1           1           1           1           1           1           1           1           1
                1           1           1           1           1           1           1           1           1           1
                1           1           1           1           1           1           1           1           1           1
                1           1           1           1           1           1           1           1           1           1
                1           1           1           1           1           1           1           1           1           1
                1           1           1           1           1           1           1           1           1           1
                1           1           1           1           1           1           1           1           1           1
                1           1           1           1           1           1           1           1           1           1
                1           1           1           1           1           1           1           1           1           1
                1           1           1           1           1           1           1           1           1           1
                1           1           1           1           1           1           1           1           1           1
                1           1           1           1           1           1           1           1           1           1
                1           1           1           1           1           1           1           1           1           1
                1           1           1           1           1           1           1           1           1           1
                1           1           1           1           1           1           1           1           1           1
                1           1           1           1           1           1           1           1           1           1
                1           1           1           1           1           1           1           1           1           1
                1           1           1           1           1           1           1           1           1           1
                1           1           1           1           1           1           1           1           1           1
                1           1           1           1           1           1           1           1           1           1
                1           1           1           1           1           1           1           1           1           1
                1           1           1           1           1           1           1           1           1           1
                1           1           1           1           1           1           1           1           1           1
                1           1           1           1           1           1           1           1           1           1
                1           1           1           1           1           1           1           1           1           1
                1           1           1           1           1           1           1           1           1           1
                1           1           1           1           1           1           1           1           1           1
                1           1           1           1           1           1           1           1           1           1
                1           1           1           1           1           1           1           1           1           1
                1           1           1           1           1           1           1           1           1           1
                1           1           1           1           1           1           1           1           1           1
                1           1           1           1           1           1           1           1           1           1
                1           1           1           1           1           1           1           1           1           1
                1           1           1           1           1           1           1           1           1           1
                1           1           1           1           1           1           1           1           1           1
                1           1           1           1           1           1           1           1           1           1
                1           1           1           1           1           1           1           1           1           1
                1           1           1           1           1           1           1           1           1           1
                1           1           1           1           1           1           1           1           1           1
                1           1           1           1           1           1           1           1           1           1
                1           1           1           1           1           1           1           1           1           1
                1           1           1           1           1           1           1           1           1           1
                1           1           1           1           1           1           1           1           1           1
                1           1           1           1           1           1           1           1           1           1
                1           1           1           1           1           1           1           1           1           1
                1           1           1           1           1           1           1           1           1           1
                1           1           1           1           1           1           1           1           1           1
                1           1           1           1           1           1           1           1           1           1
                1           1           1           1           1           1           1           1           1           1
                1           1           1           1           1           1           1           1           1           1
                1           1           1           1           1           1           1           1           1           1
                1           1           1           1           1           1           1           1           1           1
                1           1           1           1           1           1           1           1           1           1
                1           1           1           1           1           1           1           1           1           1
                1           1           1           1           1           1           1           1           1           1
                1           1           1           1           1           1           1           1           1           1
                1           1           1           1           1           1           1           1           1           1
                1           1           1           1           1           1           1           1           1           1
                1           1           1           1           1           1           1           1           1           1
                1           1           1           1           1           1           1           1           1           1
                1           1           1           1           1           1           1           1           1           1
                1           1           1           1           1           1           1           1           1           1
                1           1           1           1           1           1           1           1           1           1
                1           1           1           1           1           1           1           1           1           1
                1           1           1           1           1           1           1           1           1           1
                1           1           1           1           1           1           1           1           1           1
                1           1           1           1           1           1           1           1           1           1
                1           1           1           1           1           1           1           1           1           1
                1           1           1           1           1           1           1           1           1           1
                1           1           1           1           1           1           1           1           1           1
                1           1           1           1           1           1           1           1           1           1
                1           1           1           1           1           1           1           1           1           1
                1           1           1           1           1           1           1           1           1           1
                1           1           1           1           1           1           1           1           1           1
                1           1           1           1           1           1           1           1           1           1
                1           1           1           1           1           1           1           1           1           1
                1           1           1           1           1           1           1           1           1           1
                1           1           1           1           1           1           1           1           1           1
                1           1           1           1           1           1           1           1           1           1
                1           1           1           1           1           1           1           1           1           1
                1           1           1           1           1           1           1           1           1           1
                1           1           1           1           1           1           1           1           1           1
                1           1           1           1           1           1           1           1           1           1
                1           1           1           1           1           1           1           1           1           1
                1           1           1           1           1           1           1           1           1           1
                1           1           1           1           1           1           1           1           1           1
                1           1           1           1           1           1           1           1           1           1
                1           1           1           1           1           1           1           1           1           1
                1           1           1           1           1           1           1           1           1           1
                1           1           1           1           1           1           1           1           1           1
                1           1           1           1           1           1           1           1           1           1
                1           1           1           1           1           1           1           1           1           1
                1           1           1           1           1           1           1           1           1           1
                1           1           1           1           1           1           1           1           1           1
                1           1           1           1           1           1           1           1           1           1
                1           1           1           1           1           1           1           1           1           1
                1           1           1           1           1           1           1           1           1           1
                1           1           1           1           1           1           1           1           1           1
                1           1           1           1           1           1           1           1           1           1
                1           1           1           1           1           1           1           1           1           1
                1           1           1           1           1           1           1           1           1           1
                1           1           1           1           1           1           1           1           1           1
                1           1           1           1           1           1           1           1           1           1
                1           1           1           1           1           1           1           1           1           1
                1           1           1           1           1           1           1           1           1           1
                1           1           1           1           1           1           1           1           1           1
                1           1           1           1           1           1           1           1           1           1
                1           1           1           1           1           1           1           1           1           1
                1           1           1           1           1           1           1           1           1           1
                1           1           1           1           1           1           1           1           1           1
                1           1           1           1           1           1           1           1           1           1
                1           1           1           1           1           1           1           1           1           1
                1           1           1           1           1           1           1           1           1           1
                1           1           1           1           1           1           1           1           1           1
                1           1           1           1           1           1           1           1           1           1
                1           1           1           1           1           1           1           1           1           1
                1           1           1           1           1           1           1           1           1           1
                1           1           1           1           1           1           1           1           1           1
                1           1           1           1           1           1           1           1           1           1
                1           1           1           1           1           1           1           1           1           1
                1           1           1           1           1           1           1           1           1           1
                1           1           1           1           1           1           1           1           1           1
                1           1           1           1           1           1           1           1           1           1
                1           1           1           1           1           1           1           1           1           1
                1           1           1           1           1           1           1           1           1           1
                1           1           1           1           1           1           1           1           1           1
                1           1           1           1           1           1           1           1           1           1
                1           1           1           1           1           1           1           1           1           1
                1           1           1           1           1           1           1           1           1           1
                1           1           1           1           1           1           1           1           1           1
                1           1           1           1           1           1           1           1           1           1
                1           1           1           1           1           1           1           1           1           1
                1           1           1           1           1           1           1           1           1           1
                1           1           1           1           1           1           1           1           1           1
                1           1           1           1           1           1           1           1           1           1
                1           1           1           1           1           1           1           1           1           1
                1           1           1           1           1           1           1           1           1           1
                1           1           1           1           1           1           1           1           1           1
                1           1           1           1           1           1           1           1           1           1
                1           1           1           1           1           1           1           1           1           1
                1           1           1           1           1           1           1           1           1           1
                1           1           1           1           1           1           1           1           1           1
                1           1           1           1           1           1           1           1           1           1
                1           1           1           1           1           1           1           1           1           1
                1           1           1           1           1           1           1           1           1           1
                1           1           1           1           1           1           1           1           1           1
                1           1           1           1           1           1           1           1           1           1
                1           1           1           1           1           1           1           1           1           1
                1           1           1           1           1           1           1           1           1           1
                1           1           1           1           1           1           1           1           1           1
                1           1           1           1           1           1           1           1           1           1
                1           1           1           1           1           1           1           1           1           1
                1           1           1           1           1           1           1           1           1           1
                1           1           1           1           1           1           1           1           1           1
                1           1           1           1           1           1           1           1           1           1
                1           1           1           1           1           1           1           1           1           1
                1           1           1           1           1           1           1           1           1           1
                1           1           1           1           1           1           1           1           1           1
                1           1           1           1           1           1           1           1           1           1
                1           1           1           1           1           1           1           1           1           1
                1           1           1           1           1           1           1           1           1           1
                1           1           1           1           1           1           1           1           1           1
                1           1           1           1           1           1           1           1           1           1
                1           1           1           1           1           1           1           1           1           1
                1           1           1           1           1           1           1           1           1           1
                1           1           1           1           1           1           1           1           1           1
                1           1           1           1           1           1           1           1           1           1
                1           1           1           1           1           1           1           1           1           1
                1           1           1           1           1           1           1           1           1           1
                1           1           1           1           1           1           1           1           1           1
                1           1           1           1           1           1           1           1           1           1
                1           1           1           1           1           1           1           1           1           1
                1           1           1           1           1           1           1           1           1           1
                1           1           1           1           1           1           1           1           1           1
                1           1           1           1           1           1           1           1           1           1
                1           1           1           1           1           1           1           1           1           1
                1           1           1           1           1           1           1           1           1           1
                1           1           1           1           1           1           1           1           1           1
                1           1           1           1           1           1           1           1           1           1
                1           1           1           1           1           1           1           1           1           1
                1           1           1           1           1           1           1           1           1           1
                1           1           1           1           1           1           1           1           1           1
                1           1           1           1           1           1           1           1           1           1
                1           1           1           1           1           1           1           1           1           1
                1           1           1           1           1           1           1           1           1           1
                1           1           1           1           1           1           1           1           1           1
                1           1           1           1           1           1           1           1           1           1
                1           1           1           1           1           1           1           1           1           1
                1           1           1           1           1           1           1           1           1           1
                1           1           1           1           1           1           1           1           1           1
                1           1           1           1           1           1           1           1           1           1
                1           1           1           1           1           1           1           1           1           1
                1           1           1           1           1           1           1           1           1           1
                1           1           1           1           1           1           1           1           1           1
                1           1           1           1           1           1           1           1           1           1
                1           1           1           1           1           1           1           1           1           1
                1           1           1           1           1           1           1           1           1           1
                1           1           1           1           1           1           1           1           1           1
                1           1           1           1           1           1           1           1           1           1
                1           1           1           1           1           1           1           1           1           1
                1           1           1           1           1           1           1           1           1           1
                1           1           1           1           1           1           1           1           1           1
                1           1           1           1           1           1           1           1           1           1
                1           1           1           1           1           1           1           1           1           1
                1           1           1           1           1           1           1           1           1           1
                1           1           1           1           1           1           1           1           1           1
                1           1           1           1           1           1           1           1           1           1
                1           1           1           1           1           1           1           1           1           1
                1           1           1           1           1           1           1           1           1           1
                1           1           1           1           1           1           1           1           1           1
                1           1           1           1           1           1           1           1           1           1
                1           1           1           1           1           1           1           1           1           1
                1           1           1           1           1           1           1           1           1           1
                1           1           1           1           1           1           1           1           1           1
                1           1           1           1           1           1           1           1           1           1
                1           1           1           1           1           1           1           1           1           1
                1           1           1           1           1           1           1           1           1           1
                1           1           1           1           1           1           1           1           1           1
                1           1           1           1           1           1           1           1           1           1
                1           1           1           1           1           1           1           1           1           1
                1           1           1           1           1           1           1           1           1           1
                1           1           1           1           1           1           1           1           1           1
                1           1           1           1           1           1           1           1           1           1
                1           1           1           1           1           1           1           1           1           1
                1           1           1           1           1           1           1           1           1           1
                1           1           1           1           1           1           1           1           1           1
                1           1           1           1           1           1           1           1           1           1
                1           1           1           1           1           1           1           1           1           1
                1           1           1           1           1           1           1           1           1           1
                1           1           1           1           1           1           1           1           1           1
                1           1           1           1           1           1           1           1           1           1
                1           1           1           1           1           1           1           1           1           1
                1           1           1           1           1           1           1           1           1           1
                1           1           1           1           1           1           1           1           1           1
                1           1           1           1           1           1           1           1           1           1
                1           1           1           1           1           1           1           1           1           1
                1           1           1           1           1           1           1           1           1           1
                1           1           1           1           1           1           1           1           1           1
                1           1           1           1           1           1           1           1           1           1
                1           1           1           1           1           1           1           1           1           1
                1           1           1           1           1           1           1           1           1           1
                1           1           1           1           1           1           1           1           1           1
                1           1           1           1           1           1           1           1           1           1
                1           1           1           1           1           1           1           1           1           1
                1           1           1           1           1           1           1           1           1           1
                1           1           1           1           1           1           1           1           1           1
                1           1           1           1           1           1           1           1           1           1
                1           1           1           1           1           1           1           1           1           1
                1           1           1           1           1           1           1           1           1           1
                1           1           1           1           1           1           1           1           1           1
                1           1           1           1           1           1           1           1           1           1
                1           1           1           1           1           1           1           1           1           1
                1           1           1           1           1           1           1           1           1           1
                1           1           1           1           1           1           1           1           1           1
                1           1           1           1           1           1           1           1           1           1
                1           1           1           1           1           1           1           1           1           1
                1           1           1           1           1           1           1           1           1           1
                1           1           1           1           1           1           1           1           1           1
                1           1           1           1           1           1           1           1           1           1
                1           1           1           1           1           1           1           1           1           1
                1           1           1           1           1           1           1           1           1           1
                1           1           1           1           1           1           1           1           1           1
                1           1           1           1           1           1           1           1           1           1
                1           1           1           1           1           1           1           1           1           1
                1           1           1           1           1           1           1           1           1           1
                1           1           1           1           1           1           1           1           1           1
                1           1           1           1           1           1           1           1           1           1
                1           1           1           1           1           1           1           1           1           1
                1           1           1           1           1           1           1           1           1           1
                1           1           1           1           1           1           1           1           1           1
                1           1           1           1           1           1           1           1           1           1
                1           1           1           1           1           1           1           1           1           1
                1           1           1           1           1           1           1           1           1           1
                1           1           1           1           1           1           1           1           1           1
                1           1           1           1           1           1           1           1           1           1
                1           1           1           1           1           1           1           1           1           1
                1           1           1           1           1           1           1           1           1           1
                1           1           1           1           1           1           1           1           1           1
                1           1           1           1           1           1           1           1           1           1
                1           1           1           1           1           1           1           1           1           1
                1           1           1           1           1           1           1           1           1           1
                1           1           1           1           1           1           1           1           1           1
                1           1           1           1           1           1           1           1           1           1
                1           1           1           1           1           1           1           1           1           1
                1           1           1           1           1           1           1           1           1           1
                1           1           1           1           1           1           1           1           1           1
                1           1           1           1           1           1           1           1           1           1
                1           1           1           1           1           1           1           1           1           1
                1           1           1           1           1           1           1           1           1           1
                1           1           1           1           1           1           1           1           1           1
                1           1           1           1           1           1           1           1           1           1
                1           1           1           1           1           1           1           1           1           1
                1           1           1           1           1           1           1           1           1           1
                1           1           1           1           1           1           1           1           1           1
                1           1           1           1           1           1           1           1           1           1
                1           1           1           1           1           1           1           1           1           1
                1           1           1           1           1           1           1           1           1           1
                1           1           1           1           1           1           1           1           1           1
                1           1           1           1           1           1           1           1           1           1
                1           1           1           1           1           1           1           1           1           1
                1           1           1           1           1           1           1           1           1           1
                1           1           1           1           1           1           1           1           1           1
                1           1           1           1           1           1           1           1           1           1
                1           1           1           1           1           1           1           1           1           1
                1           1           1           1           1           1           1           1           1           1
                1           1           1           1           1           1           1           1           1           1
                1           1           1           1           1           1           1           1           1           1
                1           1           1           1           1           1           1           1           1           1
                1           1           1           1           1           1           1           1           1           1
                1           1           1           1           1           1           1           1           1           1
                1           1           1           1           1           1           1           1           1           1
                1           1           1           1           1           1           1           1           1           1
                1           1           1           1           1           1           1           1           1           1
                1           1           1           1           1           1           1           1           1           1
                1           1           1           1           1           1           1           1           1           1
                1           1           1           1           1           1           1           1           1           1
                1           1           1           1           1           1           1           1           1           1
                1           1           1           1           1           1           1           1           1           1
                1           1           1           1           1           1           1           1           1           1
                1           1           1           1           1           1           1           1           1           1
                1           1           1           1           1           1           1           1           1           1
                1           1           1           1           1           1           1           1           1           1
                1           1           1           1           1           1           1           1           1           1
                1           1           1           1           1           1           1           1           1           1
                1           1           1           1           1           1           1           1           1           1
                1           1           1           1           1           1           1           1           1           1
                1           1           1           1           1           1           1           1           1           1
                1           1           1           1           1           1           1           1           1           1
                1           1           1           1           1           1           1           1           1           1
                1           1           1           1           1           1           1           1           1           1
                1           1           1           1           1           1           1           1           1           1
                1           1           1           1           1           1           1           1           1           1
                1           1           1           1           1           1           1           1           1           1
                1           1           1           1           1           1           1           1           1           1
                1           1           1           1           1           1           1           1           1           1
                1           1           1           1           1           1           1           1           1           1
                1           1           1           1           1           1           1           1           1           1
                1           1           1           1           1           1           1           1           1           1
                1           1           1           1           1           1           1           1           1           1
                1           1           1           1           1           1           1           1           1           1
                1           1           1           1           1           1           1           1           1           1
                1           1           1           1           1           1           1           1           1           1
                1           1           1           1           1           1           1           1           1           1
                1           1           1           1           1           1           1           1           1           1
                1           1           1           1           1           1           1           1           1           1
                1           1           1           1           1           1           1           1           1           1
                1           1           1           1           1           1           1           1           1           1
                1           1           1           1           1           1           1           1           1           1
                1           1           1           1           1           1           1           1           1           1
                1           1           1           1           1           1           1           1           1           1
                1           1           1           1           1           1           1           1           1           1
                1           1           1           1           1           1           1           1           1           1
                1           1           1           1           1           1           1           1           1           1
                1           1           1           1           1           1           1           1           1           1
                1           1           1           1           1           1           1           1           1           1
                1           1           1           1           1           1           1           1           1           1
                1           1           1           1           1           1           1           1           1           1
                1           1           1           1           1           1           1           1           1           1
                1           1           1           1           1           1           1           1           1           1
                1           1           1           1           1           1           1           1           1           1
                1           1           1           1           1           1           1           1           1           1
                1           1           1           1           1           1           1           1           1           1
                1           1           1           1           1           1           1           1           1           1
                1           1           1           1           1           1           1           1           1           1
                1           1           1           1           1           1           1           1           1           1
                1           1           1           1           1           1           1           1           1           1
                1           1           1           1           1           1           1           1           1           1
                1           1           1           1           1           1           1           1           1           1
                1           1           1           1           1           1           1           1           1           1
                1           1           1           1           1           1           1           1           1           1
                1           1           1           1           1           1           1           1           1           1
                1           1           1           1           1           1           1           1           1           1
                1           1           1           1           1           1           1           1           1           1
                1           1           1           1           1           1           1           1           1           1
                1           1           1           1           1           1           1           1           1           1
                1           1           1           1           1           1           1           1           1           1
                1           1           1           1           1           1           1           1           1           1
                1           1           1           1           1           1           1           1           1           1
                1           1           1           1           1           1           1           1           1           1
                1           1           1           1           1           1           1           1           1           1
                1           1           1           1           1           1           1           1           1           1
                1           1           1           1           1           1           1           1           1           1
                1           1           1           1           1           1           1           1           1           1
                1           1           1           1           1           1           1           1           1           1
                1           1           1           1           1           1           1           1           1           1
                1           1           1           1           1           1           1           1           1           1
                1           1           1           1           1           1           1           1           1           1
                1           1           1           1           1           1           1           1           1           1
                1           1           1           1           1           1           1           1           1           1
                1           1           1           1           1           1           1           1           1           1
                1           1           1           1           1           1           1           1           1           1
                1           1           1           1           1           1           1           1           1           1
                1           1           1           1           1           1           1           1           1           1
                1           1           1           1           1           1           1           1           1           1
                1           1           1           1           1           1           1           1           1           1
                1           1           1           1           1           1           1           1           1           1
                1           1           1           1           1           1           1           1           1           1
                1           1           1           1           1           1           1           1           1           1
                1           1           1           1           1           1           1           1           1           1
                1           1           1           1           1           1           1           1           1           1
                1           1           1           1           1           1           1           1           1           1
                1           1           1           1           1           1           1           1           1           1
                1           1           1           1           1           1           1           1           1           1
                1           1           1           1           1           1           1           1           1           1
                1           1           1           1           1           1           1           1           1           1
                1           1           1           1           1           1           1           1           1           1
                1           1           1           1           1           1           1           1           1           1
                1           1           1           1           1           1           1           1           1           1
                1           1           1           1           1           1           1           1           1           1
                1           1           1           1           1           1           1           1           1           1
                1           1           1           1           1           1           1           1           1           1
                1           1           1           1           1           1           1           1           1           1
                1           1           1           1           1           1           1           1           1           1
                1           1           1           1           1           1           1           1           1           1
                1           1           1           1           1           1           1           1           1           1
                1           1           1           1           1           1           1           1           1           1
                1           1           1           1           1           1           1           1           1           1
                1           1           1           1           1           1           1           1           1           1
                1           1           1           1           1           1           1           1           1           1
                1           1           1           1           1           1           1           1           1           1
                1           1           1           1           1           1           1           1           1           1
                1           1           1           1           1           1           1           1           1           1
                1           1           1           1           1           1           1           1           1           1
                1           1           1           1           1           1           1           1           1           1
                1           1           1           1           1           1           1           1           1           1
                1           1           1           1           1           1           1           1           1           1
                1           1           1           1           1           1           1           1           1           1
                1           1           1           1           1           1           1           1           1           1
                1           1           1           1           1           1           1           1           1           1
                1           1           1           1           1           1           1           1           1           1
                1           1           1           1           1           1           1           1           1           1
                1           1           1           1           1           1           1           1           1           1
                1           1           1           1           1           1           1           1           1           1
                1           1           1           1           1           1           1           1           1           1
                1           1           1           1           1           1           1           1           1           1
                1           1           1           1           1           1           1           1           1           1
                1           1           1           1           1           1           1           1           1           1
                1           1           1           1           1           1           1           1           1           1
                1           1           1           1           1           1           1           1           1           1
                1           1           1           1           1           1           1           1           1           1
                1           1           1           1           1           1           1           1           1           1
                1           1           1           1           1           1           1           1           1           1
                1           1           1           1           1           1           1           1           1           1
                1           1           1           1           1           1           1           1           1           1
                1           1           1           1           1           1           1           1           1           1
                1           1           1           1           1           1           1           1           1           1
                1           1           1           1           1           1           1           1           1           1
                1           1           1           1           1           1           1           1           1           1
                1           1           1           1           1           1           1           1           1           1
                1           1           1           1           1           1           1           1           1           1
                1           1           1           1           1           1           1           1           1           1
                1           1           1           1           1           1           1           1           1           1
                1           1           1           1           1           1           1           1           1           1
                1           1           1           1           1           1           1           1           1           1
                1           1           1           1           1           1           1           1           1           1
                1           1           1           1           1           1           1           1           1           1
                1           1           1           1           1           1           1           1           1           1
                1           1           1           1           1           1           1           1           1           1
                1           1           1           1           1           1           1           1           1           1
                1           1           1           1           1           1           1           1           1           1
                1           1           1           1           1           1           1           1           1           1
                1           1           1           1           1           1           1           1           1           1
                1           1           1           1           1           1           1           1           1           1
                1           1           1           1           1           1           1           1           1           1
                1           1           1           1           1           1           1           1           1           1
                1           1           1           1           1           1           1           1           1           1
                1           1           1           1           1           1           1           1           1           1
                1           1           1           1           1           1           1           1           1           1
                1           1           1           1           1           1           1           1           1           1
                1           1           1           1           1           1           1           1           1           1
                1           1           1           1           1           1           1           1           1           1
                1           1           1           1           1           1           1           1           1           1
                1           1           1           1           1           1           1           1           1           1
                1           1           1           1           1           1           1           1           1           1
                1           1           1           1           1           1           1           1           1           1
                1           1           1           1           1           1           1           1           1           1
                1           1           1           1           1           1           1           1           1           1
                1           1           1           1           1           1           1           1           1           1
                1           1           1           1           1           1           1           1           1           1
[...]
                1           1           1           1           1           1           1           1           1           1
                1           1           1           1           1           1           1           1           1           1
                1           1           1           1           1           1           1           1           1           1
                1           1           1           1           1           1           1           1           1           1
                1           1           1           1           1           1           1           1           1           1
                1           1           1           1           1           1           1           1           1           1
                1           1           1           1           1           1           1           1           1           1
                1           1           1           1           1           1           1           1           1           1
                1           1           1           1           1           1           1           1           1           1
                1           1           1           1           1           1           1           1           1           1
                1           1           1           1           1           1           1           1           1           1
                1           1           1           1           1           1           1           1           1           1
                1           1           1           1           1           1           1           1           1           1
                1           1           1           1           1           1           1           1           1           1
                1           1           1           1           1           1           1           1           1           1
                1           1           1           1           1           1           1           1           1           1
                1           1           1           1           1           1           1           1           1           1
                1           1           1           1           1           1           1           1           1           1
                1           1           1           1           1           1           1           1           1           1
                1           1           1           1           1           1           1           1           1           1
                1           1           1           1           1           1           1           1           1           1
                1           1           1           1           1           1           1           1           1           1
                1           1           1           1           1           1           1           1           1           1
                1           1           1           1           1           1           1           1           1           1
                1           1           1           1           1           1           1           1           1           1
                1           1           1           1           1           1           1           1           1           1
                1           1           1           1           1           1           1           1           1           1
                1           1           1           1           1           1           1           1           1           1
                1           1           1           1           1           1           1           1           1           1
                1           1           1           1           1           1           1           1           1           1
                1           1           1           1           1           1           1           1           1           1
                1           1           1           1           1           1           1           1           1           1
                1           1           1           1           1           1           1           1           1           1
                1           1           1           1           1           1           1           1           1           1
                1           1           1           1           1           1           1           1           1           1
                1           1           1           1           1           1           1           1           1           1
                1           1           1           1           1           1           1           1           1           1
                1           1           1           1           1           1           1           1           1           1
                1           1           1           1           1           1           1           1           1           1
                1           1           1           1           1           1           1           1           1           1
                1           1           1           1           1           1           1           1           1           1
                1           1           1           1           1           1           1           1           1           1
                1           1           1           1           1           1           1           1           1           1
                1           1           1           1           1           1           1           1           1           1
                1           1           1           1           1           1           1           1           1           1
                1           1           1           1           1           1           1           1           1           1
                1           1           1           1           1           1           1           1           1           1
                1           1           1           1           1           1           1           1           1           1
                1           1           1           1           1           1           1           1           1           1
                1           1           1           1           1           1           1           1           1           1
                1           1           1           1           1           1           1           1           1           1
                1           1           1           1           1           1           1           1           1           1
                1           1           1           1           1           1           1           1           1           1
                1           1           1           1           1           1           1           1           1           1
                1           1           1           1           1           1           1           1           1           1
                1           1           1           1           1           1           1           1           1           1
                1           1           1           1           1           1           1           1           1           1
                1           1           1           1           1           1           1           1           1           1
                1           1           1           1           1           1           1           1           1           1
                1           1           1           1           1           1           1           1           1           1
                1           1           1           1           1           1           1           1           1           1
                1           1           1           1           1           1           1           1           1           1
                1           1           1           1           1           1           1           1           1           1
                1           1           1           1           1           1           1           1           1           1
                1           1           1           1           1           1           1           1           1           1
                1           1           1           1           1           1           1           1           1           1
                1           1           1           1           1           1           1           1           1           1
                1           1           1           1           1           1           1           1           1           1
                1           1           1           1           1           1           1           1           1           1
                1           1           1           1           1           1           1           1           1           1
                1           1           1           1           1           1           1           1           1           1
                1           1           1           1           1           1           1           1           1           1
                1           1           1           1           1           1           1           1           1           1
                1           1           1           1           1           1           1           1           1           1
                1           1           1           1           1           1           1           1           1           1
                1           1           1           1           1           1           1           1           1           1
                1           1           1           1           1           1           1           1           1           1
                1           1           1           1           1           1           1           1           1           1
                1           1           1           1           1           1           1           1           1           1
                1           1           1           1           1           1           1           1           1           1
                1           1           1           1           1           1           1           1           1           1
                1           1           1           1           1           1           1           1           1           1
                1           1           1           1           1           1           1           1           1           1
                1           1           1           1           1           1           1           1           1           1
                1           1           1           1           1           1           1           1           1           1
                1           1           1           1           1           1           1           1           1           1
                1           1           1           1           1           1           1           1           1           1
                1           1           1           1           1           1           1           1           1           1
                1           1           1           1           1           1           1           1           1           1
                1           1           1           1           1           1           1           1           1           1
                1           1           1           1           1           1           1           1           1           1
                1           1           1           1           1           1           1           1           1           1
                1           1           1           1           1           1           1           1           1           1
                1           1           1           1           1           1           1           1           1           1
                1           1           1           1           1           1           1           1           1           1
                1           1           1           1           1           1           1           1           1           1
                1           1           1           1           1           1           1           1           1           1
                1           1           1           1           1           1           1           1           1           1
                1           1           1           1           1           1           1           1           1           1
                1           1           1           1           1           1           1           1           1           1
                1           1           1           1           1           1           1           1           1           1
                1           1           1           1           1           1           1           1           1           1
                1           1           1           1           1           1           1           1           1           1
                1           1           1           1           1           1           1           1           1           1
                1           1           1           1           1           1           1           1           1           1
                1           1           1           1           1           1           1           1           1           1
                1           1           1           1           1           1           1           1           1           1
                1           1           1           1           1           1           1           1           1           1
                1           1           1           1           1           1           1           1           1           1
                1           1           1           1           1           1           1           1           1           1
                1           1           1           1           1           1           1           1           1           1
                1           1           1           1           1           1           1           1           1           1
                1           1           1           1           1           1           1           1           1           1
                1           1           1           1           1           1           1           1           1           1
                1           1           1           1           1           1           1           1           1           1
                1           1           1           1           1           1           1           1           1           1
                1           1           1           1           1           1           1           1           1           1
                1           1           1           1           1           1           1           1           1           1
                1           1           1           1           1           1           1           1           1           1
                1           1           1           1           1           1           1           1           1           1
                1           1           1           1           1           1           1           1           1           1
                1           1           1           1           1           1           1           1           1           1
                1           1           1           1           1           1           1           1           1           1
                1           1           1           1           1           1           1           1           1           1
                1           1           1           1           1           1           1           1           1           1
                1           1           1           1           1           1           1           1           1           1
                1           1           1           1           1           1           1           1           1           1
                1           1           1           1           1           1           1           1           1           1
                1           1           1           1           1           1           1           1           1           1
                1           1           1           1           1           1           1           1           1           1
                1           1           1           1           1           1           1           1           1           1
                1           1           1           1           1           1           1           1           1           1
                1           1           1           1           1           1           1           1           1           1
                1           1           1           1           1           1           1           1           1           1
                1           1           1           1           1           1           1           1           1           1
                1           1           1           1           1           1           1           1           1           1
                1           1           1           1

    Successfully read zone array with NCELLS = 30624
    Minimum user-specified zone number is 1
    Maximum user-specified zone number is 1


               USER ZONE          ZONE NUMBER           CELL COUNT
    --------------------------------------------------------------
                       0                    0                    0
                       1                    1                30624
    --------------------------------------------------------------

End processing zone griddata

Reading records from budget file
    1.00000              STO-SS                 
    1.00000        FLOW-JA-FACE                 
    1.00000                 DRN DRN             
    1.00000                 RIV RIV             
    1.00000                RCHA RCHA_0          
Done reading records from budget file


  VOLUME BUDGET FOR ZONE 1 AT END OF TIME STEP    1, STRESS PERIOD   1
  ---------------------------------------------------------------------------------------------------

     CUMULATIVE VOLUME      L**3       RATES FOR THIS TIME STEP      L**3/T          PACKAGE/MODEL   
     ------------------                 ------------------------                     ----------------

           IN:                                      IN:
           ---                                      ---
              STO-SS =           0.0000                STO-SS =           0.0000                                      
                 DRN =           0.0000                   DRN =           0.0000     DRN                              
                 RIV =       10909.6601                   RIV =       10909.6601     RIV                              
                RCHA =       27438.4627                  RCHA =       27438.4627     RCHA_0                           

            TOTAL IN =       38348.1228              TOTAL IN =       38348.1228

          OUT:                                     OUT:
          ----                                     ----
              STO-SS =           0.0000                STO-SS =           0.0000                                      
                 DRN =       32893.9321                   DRN =       32893.9321     DRN                              
                 RIV =        5454.7228                   RIV =        5454.7228     RIV                              
                RCHA =           0.0000                  RCHA =           0.0000     RCHA_0                           

           TOTAL OUT =       38348.6549             TOTAL OUT =       38348.6549

            IN - OUT =          -0.5321              IN - OUT =          -0.5321

 PERCENT DISCREPANCY =          -0.00     PERCENT DISCREPANCY =          -0.00


Reading records from budget file
Done reading records.  Exiting time loop.

Normal Termination
